
  EPA STORM WATER MANAGEMENT MODEL - VERSION 5.2 (Build 5.2.4)
  PYSWMM TOOLKIT API - VERSION v1.0 (2024-10-13)
  ------------------------------------------------------------

  SWMM is the best! 
  WARNING 09: time series interval greater than recording interval for Rain Gage RainGauge_A
  
  *************
  Element Count
  *************
  Number of rain gages ...... 5
  Number of subcatchments ... 3
  Number of nodes ........... 10
  Number of links ........... 10
  Number of pollutants ...... 3
  Number of land uses ....... 0
  
  
  *****************
  Pollutant Summary
  *****************
                               Ppt.      GW         Kdecay
  Name                 Units   Concen.   Concen.    1/days    CoPollutant
  -----------------------------------------------------------------------
  Groundwater           MG/L      0.00    100.00      0.00
  Rainfall              MG/L    100.00      0.00      0.00
  Sewage                MG/L      0.00      0.00      0.00
  
  
  ****************
  Raingage Summary
  ****************
                                                      Data       Recording
  Name                 Data Source                    Type       Interval 
  ------------------------------------------------------------------------
  RG1                  /home/ckaros/src/swmm-pandas/tests/data/rain.dat
  RainGauge_A          SCS_Type_III_3in               VOLUME       5 min.
  RainGauge_B          SCS_Type_III_3in               VOLUME       5 min.
  RainGauge_C          SCS_Type_III_3in               VOLUME       5 min.
  SCS_Type_III_3in     SCS_Type_III_3in               VOLUME      15 min.
  
  
  ********************
  Subcatchment Summary
  ********************
  Name                       Area     Width   %Imperv    %Slope Rain Gage            Outlet              
  -----------------------------------------------------------------------------------------------------------
  SUB1                       5.00   1866.76     30.83    0.5000 SCS_Type_III_3in     JUNC1               
  SUB2                      17.00   4174.20     40.74    0.5000 SCS_Type_III_3in     JUNC2               
  SUB3                      38.00   5665.00     62.21    0.5000 SCS_Type_III_3in     JUNC4               
  
  
  ************
  Node Summary
  ************
                                           Invert      Max.    Ponded    External
  Name                 Type                 Elev.     Depth      Area    Inflow  
  -------------------------------------------------------------------------------
  JUNC1                JUNCTION              1.50     10.25    5000.0    Yes
  JUNC2                JUNCTION             -1.04      6.20    5000.0    Yes
  JUNC3                JUNCTION             -3.47     11.50    5000.0    Yes
  JUNC4                JUNCTION             -5.25     13.80    5000.0    Yes
  JUNC6                JUNCTION              0.00      9.00       0.0
  OUT1                 OUTFALL               0.10      1.00       0.0
  OUT2                 OUTFALL              -1.04      0.00       0.0
  OUT3                 OUTFALL               0.00      0.00       0.0
  JUNC5                STORAGE              -6.50     13.20       0.0
  STOR1                STORAGE             -15.25     21.75       0.0
  
  
  ************
  Link Summary
  ************
  Name             From Node        To Node          Type            Length    %Slope Roughness
  ---------------------------------------------------------------------------------------------
  COND1            JUNC1            JUNC2            CONDUIT          932.4    0.2456    0.0150
  COND2            JUNC2            JUNC3            CONDUIT          599.5    0.3636    0.0190
  COND3            JUNC3            JUNC4            CONDUIT          541.1    0.2366    0.0190
  COND4            JUNC4            JUNC5            CONDUIT          732.5    0.1707    0.0190
  COND5            JUNC5            STOR1            CONDUIT           64.7    0.0155    0.0190
  COND6            JUNC6            OUT1             CONDUIT           37.7   -0.2651    0.0150
  COND7            JUNC5            STOR1            CONDUIT           37.7   23.8478    0.0150
  COND8            JUNC5            STOR1            CONDUIT           37.7   23.8478    0.0100
  PUMP1            STOR1            JUNC6            TYPE5 PUMP  
  WR1              JUNC2            OUT2             WEIR        
  
  
  *********************
  Cross Section Summary
  *********************
                                        Full     Full     Hyd.     Max.   No. of     Full
  Conduit          Shape               Depth     Area     Rad.    Width  Barrels     Flow
  ---------------------------------------------------------------------------------------
  COND1            CIRCULAR             1.00     0.79     0.25     1.00        1     1.53
  COND2            FILLED_CIRCULAR      0.75     0.77     0.22     1.25        1     1.33
  COND3            FILLED_CIRCULAR      1.00     1.25     0.29     1.50        1     2.07
  COND4            FILLED_CIRCULAR      1.50     2.53     0.41     2.00        1     4.51
  COND5            FILLED_CIRCULAR      1.00     1.57     0.31     2.00        1     0.70
  COND6            FORCE_MAIN           1.00     0.79     0.25     1.00        1     2.41
  COND7            COND7_curve         10.00   770.00     3.66   100.00        2 88430.07
  COND8            Transect             1.00     1.00     0.35     2.00        1    36.19
  
  
  *************
  Shape Summary
  *************

  Shape COND7_curve
  Area:  
              0.0005     0.0021     0.0047     0.0083     0.0130 
              0.0190     0.0265     0.0356     0.0462     0.0584 
              0.0719     0.0861     0.1013     0.1173     0.1342 
              0.1519     0.1706     0.1900     0.2104     0.2316 
              0.2537     0.2766     0.3004     0.3251     0.3506 
              0.3766     0.4026     0.4286     0.4545     0.4805 
              0.5065     0.5325     0.5584     0.5844     0.6104 
              0.6364     0.6623     0.6883     0.7143     0.7403 
              0.7662     0.7922     0.8182     0.8442     0.8701 
              0.8961     0.9221     0.9481     0.9740     1.0000 
  Hrad:  
              0.0272     0.0544     0.0816     0.1088     0.1360 
              0.1529     0.1736     0.1964     0.2204     0.2453 
              0.2827     0.3188     0.3540     0.3884     0.4220 
              0.4550     0.4874     0.5194     0.5510     0.5823 
              0.6132     0.6438     0.6742     0.7044     0.7343 
              0.7856     0.8365     0.8869     0.9370     0.9867 
              1.0360     1.0849     1.1334     1.1816     1.2294 
              1.2768     1.3239     1.3706     1.4170     1.4630 
              1.5086     1.5540     1.5990     1.6436     1.6879 
              1.7319     1.7756     1.8190     1.8620     1.0000 
  Width: 
              0.0400     0.0800     0.1200     0.1600     0.2000 
              0.2600     0.3200     0.3800     0.4400     0.5000 
              0.5333     0.5667     0.6000     0.6333     0.6667 
              0.7000     0.7333     0.7667     0.8000     0.8333 
              0.8667     0.9000     0.9333     0.9667     1.0000 
              1.0000     1.0000     1.0000     1.0000     1.0000 
              1.0000     1.0000     1.0000     1.0000     1.0000 
              1.0000     1.0000     1.0000     1.0000     1.0000 
              1.0000     1.0000     1.0000     1.0000     1.0000 
              1.0000     1.0000     1.0000     1.0000     1.0000 
  
  
  ****************
  Transect Summary
  ****************

  Transect Transect
  Area:  
              0.0004     0.0016     0.0036     0.0064     0.0100 
              0.0144     0.0196     0.0256     0.0324     0.0400 
              0.0484     0.0576     0.0676     0.0784     0.0900 
              0.1024     0.1156     0.1296     0.1444     0.1600 
              0.1764     0.1936     0.2116     0.2304     0.2500 
              0.2704     0.2916     0.3136     0.3364     0.3600 
              0.3844     0.4096     0.4356     0.4624     0.4900 
              0.5184     0.5476     0.5776     0.6084     0.6400 
              0.6724     0.7056     0.7396     0.7744     0.8100 
              0.8464     0.8836     0.9216     0.9604     1.0000 
  Hrad:  
              0.0200     0.0400     0.0600     0.0800     0.1000 
              0.1200     0.1400     0.1600     0.1800     0.2000 
              0.2200     0.2400     0.2600     0.2800     0.3000 
              0.3200     0.3400     0.3600     0.3800     0.4000 
              0.4200     0.4400     0.4600     0.4800     0.5000 
              0.5200     0.5400     0.5600     0.5800     0.6000 
              0.6200     0.6400     0.6600     0.6800     0.7000 
              0.7200     0.7400     0.7600     0.7800     0.8000 
              0.8200     0.8400     0.8600     0.8800     0.9000 
              0.9200     0.9400     0.9600     0.9800     1.0000 
  Width: 
              0.0200     0.0400     0.0600     0.0800     0.1000 
              0.1200     0.1400     0.1600     0.1800     0.2000 
              0.2200     0.2400     0.2600     0.2800     0.3000 
              0.3200     0.3400     0.3600     0.3800     0.4000 
              0.4200     0.4400     0.4600     0.4800     0.5000 
              0.5200     0.5400     0.5600     0.5800     0.6000 
              0.6200     0.6400     0.6600     0.6800     0.7000 
              0.7200     0.7400     0.7600     0.7800     0.8000 
              0.8200     0.8400     0.8600     0.8800     0.9000 
              0.9200     0.9400     0.9600     0.9800     1.0000 
  
  
  ****************
  Analysis Options
  ****************
  Flow Units ............... CFS
  Process Models:
    Rainfall/Runoff ........ YES
    RDII ................... YES
    Snowmelt ............... YES
    Groundwater ............ YES
    Flow Routing ........... YES
    Ponding Allowed ........ YES
    Water Quality .......... YES
  Infiltration Method ...... GREEN_AMPT
  Flow Routing Method ...... DYNWAVE
  Surcharge Method ......... EXTRAN
  Starting Date ............ 01/01/1900 00:00:00
  Ending Date .............. 01/02/1900 00:00:00
  Antecedent Dry Days ...... 0.0
  Report Time Step ......... 00:05:00
  Wet Time Step ............ 00:05:00
  Dry Time Step ............ 01:00:00
  Routing Time Step ........ 15.00 sec
  Variable Time Step ....... YES
  Maximum Trials ........... 10
  Number of Threads ........ 1
  Head Tolerance ........... 0.005000 ft
  
  
  *********************
  Rainfall File Summary
  *********************
  Station    First        Last         Recording   Periods    Periods    Periods
  ID         Date         Date         Frequency  w/Precip    Missing    Malfunc.
  -------------------------------------------------------------------------------
  RG1        01/01/1900   01/06/1900       5 min        36          0          0

  
  
  **********************           Volume        Volume
  Rainfall Dependent I/I        acre-feet      10^6 gal
  **********************        ---------     ---------
  Sewershed Rainfall ......         6.353         2.070
  RDII Produced ...........         0.072         0.024
  RDII Ratio ..............         0.011
  
  
  *********************
  Control Actions Taken
  *********************

  
  **************************        Volume         Depth
  Runoff Quantity Continuity     acre-feet        inches
  **************************     ---------       -------
  Initial Snow Cover .......         0.000         0.000
  Total Precipitation ......        14.998         3.000
  Evaporation Loss .........         3.192         0.638
  Infiltration Loss ........         6.231         1.246
  Surface Runoff ...........         5.544         1.109
  Snow Removed .............         0.000         0.000
  Final Snow Cover .........         0.000         0.000
  Final Storage ............         0.184         0.037
  Continuity Error (%) .....        -1.021
  
  
  **************************   Groundwater      Rainfall        Sewage
  Runoff Quality Continuity            lbs           lbs           lbs
  **************************    ----------    ----------    ----------
  Initial Buildup ..........         0.000         0.000         0.000
  Surface Buildup ..........         0.000         0.000         0.000
  Wet Deposition ...........         0.000      4075.669         0.000
  Sweeping Removal .........         0.000         0.000         0.000
  Infiltration Loss ........         0.000      1693.349         0.000
  BMP Removal ..............         0.000         0.000         0.000
  Surface Runoff ...........         0.000      1503.737         0.000
  Remaining Buildup ........         0.000        49.873         0.000
  Continuity Error (%) .....         0.000        20.333         0.000
  
  
  **************************        Volume         Depth
  Groundwater Continuity         acre-feet        inches
  **************************     ---------       -------
  Initial Storage ..........      1272.478       254.496
  Infiltration .............         6.231         1.246
  Upper Zone ET ............         0.000         0.000
  Lower Zone ET ............         0.000         0.000
  Deep Percolation .........         0.068         0.014
  Groundwater Flow .........        14.647         2.929
  Final Storage ............      1263.962       252.792
  Continuity Error (%) .....         0.003
  
  
  **************************        Volume        Volume
  Flow Routing Continuity        acre-feet      10^6 gal
  **************************     ---------     ---------
  Dry Weather Inflow .......         1.657         0.540
  Wet Weather Inflow .......         5.543         1.806
  Groundwater Inflow .......        13.142         4.282
  RDII Inflow ..............         0.072         0.023
  External Inflow ..........       200.433        65.314
  External Outflow .........        66.563        21.691
  Flooding Loss ............         0.000         0.000
  Evaporation Loss .........         0.004         0.001
  Exfiltration Loss ........         0.157         0.051
  Initial Stored Volume ....         0.000         0.000
  Final Stored Volume ......       152.871        49.815
  Continuity Error (%) .....         0.566
  
  
  **************************   Groundwater      Rainfall        Sewage
  Quality Routing Continuity           lbs           lbs           lbs
  **************************    ----------    ----------    ----------
  Dry Weather Inflow .......         0.000         0.000       450.283
  Wet Weather Inflow .......         0.000      1503.629         0.000
  Groundwater Inflow .......      3571.215         0.000         0.000
  RDII Inflow ..............         0.000         0.000         0.000
  External Inflow ..........         0.000         0.000         0.000
  External Outflow .........       895.081       829.878       466.070
  Flooding Loss ............         0.000         0.000         0.000
  Exfiltration Loss ........         3.119         0.071         0.013
  Mass Reacted .............         0.150       105.180         0.000
  Initial Stored Mass ......         0.000         0.000         0.000
  Final Stored Mass ........      2685.791        52.821         5.031
  Continuity Error (%) .....        -0.362        34.296        -4.626
  
  
  *************************
  Highest Continuity Errors
  *************************
  Node STOR1 (13.85%)
  
  
  ***************************
  Time-Step Critical Elements
  ***************************
  Link COND6 (92.75%)
  
  
  ********************************
  Highest Flow Instability Indexes
  ********************************
  All links are stable.
  
  
  *********************************
  Most Frequent Nonconverging Nodes
  *********************************
  Node OUT1 (0.39%)
  Node OUT2 (0.39%)
  Node OUT3 (0.39%)
  Node JUNC4 (0.30%)
  Node JUNC3 (0.18%)
  
  
  *************************
  Routing Time Step Summary
  *************************
  Minimum Time Step           :     1.11 sec
  Average Time Step           :     4.79 sec
  Maximum Time Step           :    15.00 sec
  % of Time in Steady State   :     0.00
  Average Iterations per Step :     2.08
  % of Steps Not Converging   :     0.39
  Time Step Frequencies       :
     15.000 -  7.597 sec      :     7.19 %
      7.597 -  3.848 sec      :    92.73 %
      3.848 -  1.949 sec      :     0.07 %
      1.949 -  0.987 sec      :     0.01 %
      0.987 -  0.500 sec      :     0.00 %
  
  
  ***************************
  Subcatchment Runoff Summary
  ***************************
  
  ------------------------------------------------------------------------------------------------------------------------------
                            Total      Total      Total      Total     Imperv       Perv      Total       Total     Peak  Runoff
                           Precip      Runon       Evap      Infil     Runoff     Runoff     Runoff      Runoff   Runoff   Coeff
  Subcatchment                 in         in         in         in         in         in         in    10^6 gal      CFS
  ------------------------------------------------------------------------------------------------------------------------------
  SUB1                       3.00       0.00       0.32       2.12       0.67       0.27       0.60        0.08     5.77   0.201
  SUB2                       3.00       0.00       0.41       2.08       0.86       0.11       0.54        0.25    16.93   0.181
  SUB3                       3.00       0.00       0.78       0.76       1.28       0.79       1.43        1.47    43.65   0.476
  
  
  *******************
  Groundwater Summary
  *******************
  
  -----------------------------------------------------------------------------------------------------
                                            Total    Total  Maximum  Average  Average    Final    Final
                          Total    Total    Lower  Lateral  Lateral    Upper    Water    Upper    Water
                          Infil     Evap  Seepage  Outflow  Outflow   Moist.    Table   Moist.    Table
  Subcatchment               in       in       in       in      CFS                ft                ft
  -----------------------------------------------------------------------------------------------------
  SUB1                     2.12     0.00     0.00    34.64     9.40     0.28    -5.86     0.28   -12.73
  SUB2                     2.08     0.00     0.05     0.04     0.04     0.28     0.31     0.28     0.75
  SUB3                     0.76     0.00     0.00     0.06     0.10     0.28    -3.48     0.28    -3.36
  
  
  ****************************
  Subcatchment Washoff Summary
  ****************************
  
  --------------------------------------------------------------
                         Groundwater      Rainfall        Sewage
  Subcatchment                   lbs           lbs           lbs
  --------------------------------------------------------------
  SUB1                         0.000        67.955         0.000
  SUB2                         0.000       207.584         0.000
  SUB3                         0.000      1228.198         0.000
  --------------------------------------------------------------
  System                       0.000      1503.737         0.000
  
  
  ******************
  Node Depth Summary
  ******************
  
  ---------------------------------------------------------------------------------
                                 Average  Maximum  Maximum  Time of Max    Reported
                                   Depth    Depth      HGL   Occurrence   Max Depth
  Node                 Type         Feet     Feet     Feet  days hr:min        Feet
  ---------------------------------------------------------------------------------
  JUNC1                JUNCTION   771.36  1293.87  1295.37     1  00:00     1293.87
  JUNC2                JUNCTION     5.25     5.95     4.91     0  11:50        5.93
  JUNC3                JUNCTION     3.42    14.25    10.78     0  13:29       14.25
  JUNC4                JUNCTION     3.78    18.17    12.92     0  12:42       18.15
  JUNC6                JUNCTION     1.54     1.76     1.76     0  04:06        1.65
  OUT1                 OUTFALL      0.88     1.00     1.10     0  04:06        0.95
  OUT2                 OUTFALL      0.00     0.00    -1.04     0  00:00        0.00
  OUT3                 OUTFALL      0.00     0.00     0.00     0  00:00        0.00
  JUNC5                STORAGE      0.16     0.26    -6.24     0  12:44        0.26
  STOR1                STORAGE      2.12     3.12   -12.13     0  16:00        3.12
  
  
  *******************
  Node Inflow Summary
  *******************
  
  -------------------------------------------------------------------------------------------------
                                  Maximum  Maximum                  Lateral       Total        Flow
                                  Lateral    Total  Time of Max      Inflow      Inflow     Balance
                                   Inflow   Inflow   Occurrence      Volume      Volume       Error
  Node                 Type           CFS      CFS  days hr:min    10^6 gal    10^6 gal     Percent
  -------------------------------------------------------------------------------------------------
  JUNC1                JUNCTION    113.24   113.24     0  11:50        63.7        63.7       0.000
  JUNC2                JUNCTION     27.20    50.92     0  11:50        6.32        20.2       0.056
  JUNC3                JUNCTION      0.04     3.44     0  12:39     0.00386        1.27       0.429
  JUNC4                JUNCTION     44.54    44.54     0  12:20        1.95        3.21       0.329
  JUNC6                JUNCTION      0.00     5.80     0  04:06           0        2.67      -0.034
  OUT1                 OUTFALL       0.00     6.31     0  04:06           0        2.67       0.000
  OUT2                 OUTFALL       0.00    50.60     0  11:50           0          19       0.000
  OUT3                 OUTFALL       0.00     0.00     0  00:00           0           0       0.000 gal
  JUNC5                STORAGE       0.00    17.26     0  12:43           0        3.09      -0.388
  STOR1                STORAGE       0.00    17.26     0  12:44           0        3.11      16.071
  
  
  **********************
  Node Surcharge Summary
  **********************
  
  Surcharging occurs when water rises above the top of the highest conduit.
  ---------------------------------------------------------------------
                                               Max. Height   Min. Depth
                                   Hours       Above Crown    Below Rim
  Node                 Type      Surcharged           Feet         Feet
  ---------------------------------------------------------------------
  JUNC1                JUNCTION       22.00       1292.875        0.000
  JUNC3                JUNCTION        6.76         12.747        0.000
  JUNC4                JUNCTION        5.38         16.168        0.000
  JUNC6                JUNCTION       17.08          0.762        7.238
  
  
  *********************
  Node Flooding Summary
  *********************
  
  Flooding refers to all water that overflows a node, whether it ponds or not.
  --------------------------------------------------------------------------
                                                             Total   Maximum
                                 Maximum   Time of Max       Flood    Ponded
                        Hours       Rate    Occurrence      Volume     Depth
  Node                 Flooded       CFS   days hr:min    10^6 gal      Feet
  --------------------------------------------------------------------------
  JUNC1                  22.00    106.09      0  02:01      49.767  1283.625
  JUNC3                   2.91      3.44      0  12:39       0.108     2.747
  JUNC4                   2.28     26.03      0  12:20       0.198     4.368
  
  
  **********************
  Storage Volume Summary
  **********************
  
  ------------------------------------------------------------------------------------------------
                         Average    Avg   Evap  Exfil     Maximum    Max    Time of Max    Maximum
                          Volume   Pcnt   Pcnt   Pcnt      Volume   Pcnt     Occurrence    Outflow
  Storage Unit          1000 ft³   Full   Loss   Loss    1000 ft³   Full    days hr:min        CFS
  ------------------------------------------------------------------------------------------------
  JUNC5                    0.000    0.0    0.0    0.0       0.001    0.1       0  12:44      17.26
  STOR1                    1.103    1.1    0.0    0.0       2.022    2.1       0  16:00       5.80
  
  
  ***********************
  Outfall Loading Summary
  ***********************
  
  -----------------------------------------------------------------------------------------------------
                         Flow       Avg       Max       Total         Total         Total         Total
                         Freq      Flow      Flow      Volume   Groundwater      Rainfall        Sewage
  Outfall Node           Pcnt       CFS       CFS    10^6 gal           lbs           lbs           lbs
  -----------------------------------------------------------------------------------------------------
  OUT1                  93.01      5.79      6.31       2.667       102.351       611.389       372.317
  OUT2                  99.98     34.06     50.60      19.022       792.823       218.537        93.851
  OUT3                   0.00      0.00      0.00       0.000         0.000         0.000         0.000
  -----------------------------------------------------------------------------------------------------
  System                64.33     39.84     56.40      21.689       895.173       829.926       466.168
  
  
  ********************
  Link Flow Summary
  ********************
  
  -----------------------------------------------------------------------------
                                 Maximum  Time of Max   Maximum    Max/    Max/
                                  |Flow|   Occurrence   |Veloc|    Full    Full
  Link                 Type          CFS  days hr:min    ft/sec    Flow   Depth
  -----------------------------------------------------------------------------
  COND1                CONDUIT     33.82     1  00:00     43.06   22.10    1.00
  COND2                CONDUIT      3.07     0  02:00      4.25    2.30    1.00
  COND3                CONDUIT      5.07     0  14:15      4.06    2.45    1.00
  COND4                CONDUIT     17.26     0  12:43      7.06    3.82    0.92
  COND5                CONDUIT      0.00     0  00:00      0.00    0.00    0.00
  COND6                CONDUIT      6.31     0  04:06      8.41    2.62    1.00
  COND7                CONDUIT     16.29     0  12:44      5.66    0.00    0.16
  COND8                CHANNEL      0.97     0  12:44      6.79    0.03    0.63
  PUMP1                PUMP         5.80     0  04:06              1.00
  WR1                  WEIR        50.60     0  11:50                      0.92
  
  
  ***************************
  Flow Classification Summary
  ***************************
  
  -------------------------------------------------------------------------------------
                      Adjusted    ---------- Fraction of Time in Flow Class ---------- 
                       /Actual         Up    Down  Sub   Sup   Up    Down  Norm  Inlet 
  Conduit               Length    Dry  Dry   Dry   Crit  Crit  Crit  Crit  Ltd   Ctrl  
  -------------------------------------------------------------------------------------
  COND1                   1.00   0.00  0.00  0.00  1.00  0.00  0.00  0.00  0.00  0.00
  COND2                   1.00   0.00  0.00  0.00  1.00  0.00  0.00  0.00  0.00  0.00
  COND3                   1.00   0.00  0.00  0.00  0.98  0.00  0.00  0.01  0.00  0.00
  COND4                   1.00   0.00  0.00  0.00  0.00  0.00  0.00  1.00  0.00  0.00
  COND5                   1.00   1.00  0.00  0.00  0.00  0.00  0.00  0.00  0.00  0.00
  COND6                   2.32   0.10  0.12  0.00  0.79  0.00  0.00  0.00  0.00  0.00
  COND7                  35.20   0.00  0.00  0.00  0.97  0.03  0.00  0.00  0.99  0.00
  COND8                  10.66   0.00  0.00  0.00  0.96  0.04  0.00  0.00  0.99  0.00
  
  
  *************************
  Conduit Surcharge Summary
  *************************
  
  ----------------------------------------------------------------------------
                                                           Hours        Hours 
                         --------- Hours Full --------   Above Full   Capacity
  Conduit                Both Ends  Upstream  Dnstream   Normal Flow   Limited
  ----------------------------------------------------------------------------
  COND1                      22.00     22.00     22.00     22.00        22.00
  COND2                       6.76     22.00      6.76     19.07         3.83
  COND3                       5.37      6.76      5.38     19.87         2.56
  COND4                       0.01      5.38      0.01      6.40         0.01
  COND6                       0.01      0.01     17.07     17.08         0.01
  COND8                       0.01      0.01     16.80      0.01         0.01
  
  
  ***************
  Pumping Summary
  ***************
  
  ---------------------------------------------------------------------------------------------------------
                                                  Min       Avg       Max     Total     Power    % Time Off
                        Percent   Number of      Flow      Flow      Flow    Volume     Usage    Pump Curve
  Pump                 Utilized   Start-Ups       CFS       CFS       CFS  10^6 gal     Kw-hr    Low   High
  ---------------------------------------------------------------------------------------------------------
  PUMP1                   77.62           3      0.00      5.80      5.80     2.667    123.06    0.0  100.0
  
  
  ***************************
  Link Pollutant Load Summary
  ***************************
  
  --------------------------------------------------------------
                         Groundwater      Rainfall        Sewage
  Link                           lbs           lbs           lbs
  --------------------------------------------------------------
  COND1                      827.725        15.133         0.000
  COND2                       47.377         3.841         6.022
  COND3                       48.103       171.221        11.805
  COND4                       91.425      1231.813       354.289
  COND5                        0.000         0.000         0.000
  COND6                      102.351       611.389       372.317
  COND7                       85.047      1189.916       331.930
  COND8                        5.168        69.804        20.041
  PUMP1                      102.345       611.355       372.274
  WR1                        792.823       218.537        93.851
  

  Analysis begun on:  Fri Oct 18 12:57:46 2024
  Analysis ended on:  Fri Oct 18 12:57:46 2024
  Total elapsed time: < 1 sec